Version 4
SHEET 1 2564 788
WIRE 1328 -400 432 -400
WIRE 1328 -288 1328 -400
WIRE 1328 -288 1232 -288
WIRE 1424 -288 1328 -288
WIRE 1232 -192 1232 -288
WIRE 48 -48 48 -80
WIRE 432 -48 432 -400
WIRE 432 -48 48 -48
WIRE 560 -48 432 -48
WIRE 1232 -32 1232 -112
WIRE 1328 -32 1232 -32
WIRE 1424 -32 1424 -288
WIRE 48 0 48 -48
WIRE 48 0 -32 0
WIRE 112 0 48 0
WIRE 560 0 560 -48
WIRE 560 0 480 0
WIRE 656 0 560 0
WIRE -32 16 -32 0
WIRE 656 16 656 0
WIRE 1328 16 1328 -32
WIRE 1360 16 1328 16
WIRE 1232 80 1232 -32
WIRE 112 96 112 80
WIRE 176 96 112 96
WIRE 352 96 240 96
WIRE -1152 112 -1248 112
WIRE -848 112 -896 112
WIRE -704 112 -736 112
WIRE 112 112 112 96
WIRE 656 144 656 96
WIRE 656 144 560 144
WIRE 704 144 656 144
WIRE 720 144 704 144
WIRE 1088 144 768 144
WIRE -176 160 -208 160
WIRE -32 160 -32 96
WIRE -32 160 -112 160
WIRE 48 160 -32 160
WIRE 352 192 352 96
WIRE 480 192 480 80
WIRE 480 192 352 192
WIRE 496 192 480 192
WIRE 1424 208 1424 64
WIRE 1440 208 1424 208
WIRE 1584 208 1440 208
WIRE 1808 208 1648 208
WIRE -32 224 -32 160
WIRE 1088 224 1088 144
WIRE 1232 224 1232 144
WIRE 1232 224 1088 224
WIRE 112 240 112 208
WIRE 640 240 560 240
WIRE -1376 256 -1712 256
WIRE -800 256 -800 192
WIRE -800 256 -1376 256
WIRE -512 256 -512 192
WIRE -336 256 -512 256
WIRE -208 256 -208 160
WIRE -208 256 -336 256
WIRE 1232 256 1232 224
WIRE 304 272 224 272
WIRE 640 272 640 240
WIRE -1104 288 -1104 192
WIRE -448 288 -448 112
WIRE -448 288 -1104 288
WIRE -1712 320 -1712 256
WIRE 304 320 304 272
WIRE -704 336 -704 112
WIRE -704 336 -976 336
WIRE 112 336 112 320
WIRE 224 336 224 272
WIRE 224 336 112 336
WIRE 480 352 480 192
WIRE 112 368 112 336
WIRE 1440 368 1440 208
WIRE 640 384 640 352
WIRE 800 384 640 384
WIRE -1376 400 -1440 400
WIRE -1184 400 -1376 400
WIRE -560 400 -560 112
WIRE -560 400 -1184 400
WIRE -336 400 -560 400
WIRE -192 400 -336 400
WIRE 800 400 800 384
WIRE -1040 416 -1040 112
WIRE -1040 416 -1072 416
WIRE 1232 416 1232 320
WIRE 1376 416 1232 416
WIRE -896 432 -896 112
WIRE -896 432 -944 432
WIRE -560 432 -560 400
WIRE -448 432 -448 288
WIRE 640 432 640 384
WIRE -192 480 -192 400
WIRE -32 480 -32 304
WIRE -32 480 -192 480
WIRE 112 480 112 448
WIRE 112 480 -32 480
WIRE 304 480 304 384
WIRE 304 480 112 480
WIRE -1712 496 -1712 400
WIRE -1440 496 -1440 400
WIRE -1440 496 -1712 496
WIRE -1248 512 -1248 112
WIRE -1184 512 -1184 400
WIRE -1072 512 -1072 416
WIRE -976 512 -976 336
WIRE -976 512 -1008 512
WIRE -896 512 -896 432
WIRE -800 512 -800 256
WIRE -800 512 -832 512
WIRE -768 512 -800 512
WIRE -704 512 -704 336
WIRE 480 512 480 432
WIRE 576 512 480 512
WIRE 640 512 576 512
WIRE 800 512 800 464
WIRE 800 512 640 512
WIRE 1232 560 1232 416
WIRE -800 608 -800 512
WIRE -448 608 -448 512
WIRE -448 608 -800 608
WIRE 1344 640 1232 640
WIRE 1440 640 1440 464
WIRE 1440 640 1344 640
WIRE -944 656 -944 432
WIRE -560 656 -560 512
WIRE -560 656 -944 656
FLAG 48 -160 0
FLAG 112 480 0
FLAG 576 512 0
FLAG 1344 640 0
FLAG 1808 288 0
FLAG -1376 256 AudioIn+
FLAG -1376 400 AudioIn-
FLAG -336 256 AudioOut+
FLAG -336 400 AudioOut-
SYMBOL npn 48 112 R0
SYMATTR InstName Q1
SYMATTR Value 2N2222
SYMBOL res -48 208 R0
SYMATTR InstName R1
SYMATTR Value 4.7k
SYMBOL res -48 0 R0
SYMATTR InstName R2
SYMATTR Value 10k
SYMBOL res 96 -16 R0
SYMATTR InstName R3
SYMATTR Value 1k
SYMBOL res 96 352 R0
SYMATTR InstName R5
SYMATTR Value 500
SYMBOL cap -112 144 R90
WINDOW 0 0 32 VBottom 2
WINDOW 3 32 32 VTop 2
SYMATTR InstName C2
SYMATTR Value 100µ
SYMBOL voltage 48 -64 R180
WINDOW 0 24 96 Left 2
WINDOW 3 24 16 Left 2
WINDOW 123 0 0 Left 0
WINDOW 39 0 0 Left 0
SYMATTR InstName V1
SYMATTR Value 12
SYMBOL voltage -1712 304 R0
WINDOW 123 24 124 Left 2
WINDOW 39 0 0 Left 0
SYMATTR Value2 AC 0 1
SYMATTR InstName V2
SYMATTR Value SINE(0 0.4 1k)
SYMBOL res 96 224 R0
SYMATTR InstName R4
SYMATTR Value 500
SYMBOL cap 240 80 R90
WINDOW 0 0 32 VBottom 2
WINDOW 3 32 32 VTop 2
SYMATTR InstName C1
SYMATTR Value 10µ
SYMBOL cap 320 384 R180
WINDOW 0 24 56 Left 2
WINDOW 3 24 8 Left 2
SYMATTR InstName C3
SYMATTR Value 100µ
SYMBOL npn 496 144 R0
SYMATTR InstName Q2
SYMATTR Value 2N2222
SYMBOL res 464 336 R0
SYMATTR InstName R6
SYMATTR Value 2.2k
SYMBOL res 464 -16 R0
SYMATTR InstName R7
SYMATTR Value 10k
SYMBOL res 624 256 R0
SYMATTR InstName R9
SYMATTR Value 100
SYMBOL res 624 416 R0
SYMATTR InstName R10
SYMATTR Value 500
SYMBOL cap 768 128 R90
WINDOW 0 0 32 VBottom 2
WINDOW 3 32 32 VTop 2
SYMATTR InstName C4
SYMATTR Value 100µ
SYMBOL cap 816 464 R180
WINDOW 0 24 56 Left 2
WINDOW 3 24 8 Left 2
SYMATTR InstName C5
SYMATTR Value 100µ
SYMBOL res 640 0 R0
SYMATTR InstName R8
SYMATTR Value 2.2k
SYMBOL npn 1360 -32 R0
SYMATTR InstName Q3
SYMATTR Value 2N3904
SYMBOL res 1216 544 R0
SYMATTR InstName R11
SYMATTR Value 8K
SYMBOL res 1216 -208 R0
SYMATTR InstName R14
SYMATTR Value 8K
SYMBOL cap 1648 192 R90
WINDOW 0 0 32 VBottom 2
WINDOW 3 32 32 VTop 2
SYMATTR InstName C8
SYMATTR Value 100µ
SYMBOL pnp 1376 464 M180
SYMATTR InstName Q4
SYMATTR Value 2N3906
SYMBOL diode 1216 80 R0
SYMATTR InstName D1
SYMATTR Value 1N4148
SYMBOL diode 1216 256 R0
SYMATTR InstName D2
SYMATTR Value 1N4148
SYMBOL res 1792 192 R0
SYMATTR InstName R12
SYMATTR Value 8
SYMBOL potentiometer -1088 112 R90
WINDOW 39 16 -5 Left 0
SYMATTR InstName Treble
SYMBOL potentiometer -784 112 R90
WINDOW 39 16 -5 Left 0
SYMATTR InstName Bass
SYMBOL potentiometer -496 112 R90
WINDOW 39 16 -5 Left 0
SYMATTR InstName Volume
SYMBOL cap -832 496 R90
WINDOW 0 0 32 VBottom 2
WINDOW 3 32 32 VTop 2
SYMATTR InstName C6
SYMATTR Value 0.1µ
SYMBOL cap -704 496 R90
WINDOW 0 0 32 VBottom 2
WINDOW 3 32 32 VTop 2
SYMATTR InstName C7
SYMATTR Value 0.1
SYMBOL res -576 416 R0
SYMATTR InstName R13
SYMATTR Value 2.2k
SYMBOL res -464 416 R0
SYMATTR InstName R15
SYMATTR Value 1k
SYMBOL cap -1184 496 R90
WINDOW 0 0 32 VBottom 2
WINDOW 3 32 32 VTop 2
SYMATTR InstName C9
SYMATTR Value 0.1µ
SYMBOL cap -1008 496 R90
WINDOW 0 0 32 VBottom 2
WINDOW 3 32 32 VTop 2
SYMATTR InstName C10
SYMATTR Value 0.1
TEXT -184 504 Left 2 !.tran 50m
